@<TRIPOS>MOLECULE
0sb2.pdb
42 45 1 0 0
SMALL
AMBER ff14SB


@<TRIPOS>ATOM
      1 O2          1.3670   34.6210   43.5590 O.2       1 SB2    0.0000
      2 C1         -0.6580   32.6530   42.6730 C.3       1 SB2    0.0000
      3 S1          0.4750   33.9690   42.1390 S.o       1 SB2    0.0000
      4 CA1         3.1340   31.0370   41.3110 C.ar      1 SB2    0.0000
      5 CA2         2.1080   31.7740   41.9020 C.ar      1 SB2    0.0000
      6 CA3         1.7720   33.0310   41.3960 C.ar      1 SB2    0.0000
      7 CA4         2.4680   33.5480   40.2970 C.ar      1 SB2    0.0000
      8 CA5         3.4960   32.8100   39.7050 C.ar      1 SB2    0.0000
      9 CA6         3.8340   31.5520   40.2160 C.ar      1 SB2    0.0000
     10 NB1         8.8020   30.9710   34.7200 N.ar      1 SB2    0.0000
     11 CB2         8.3880   29.7240   35.0050 C.ar      1 SB2    0.0000
     12 CB3         7.6170   29.4700   36.1420 C.ar      1 SB2    0.0000
     13 CB4         7.2760   30.5230   36.9910 C.ar      1 SB2    0.0000
     14 CB5         7.7180   31.8100   36.6740 C.ar      1 SB2    0.0000
     15 CB6         8.4870   32.0070   35.5210 C.ar      1 SB2    0.0000
     16 NC1         5.5350   31.1900   38.5230 N.2       1 SB2    0.0000
     17 CC2         4.9200   30.7160   39.6250 C.2       1 SB2    0.0000
     18 NC3         5.3860   29.5130   40.0310 N.2       1 SB2    0.0000
     19 CC4         6.3680   29.1490   39.1880 C.2       1 SB2    0.0000
     20 CC5         6.4470   30.2600   38.2060 C.2       1 SB2    0.0000
     21 CD1         8.5170   27.8320   39.0090 C.ar      1 SB2    0.0000
     22 CD2         9.1870   26.6050   39.0850 C.ar      1 SB2    0.0000
     23 CD3         8.4830   25.4370   39.4090 C.ar      1 SB2    0.0000
     24 CD4         7.1140   25.4900   39.6680 C.ar      1 SB2    0.0000
     25 CD5         6.4470   26.7110   39.5900 C.ar      1 SB2    0.0000
     26 CD6         7.1420   27.8780   39.2600 C.ar      1 SB2    0.0000
     27 FD3         9.1160   24.2560   39.4810 F         1 SB2    0.0000
     28 HA1         3.3891   30.0629   41.7015 H         1 SB2    0.0000
     29 HA2         1.5738   31.3726   42.7505 H         1 SB2    0.0000
     30 HA4         2.2094   34.5207   39.9054 H         1 SB2    0.0000
     31 HA5         4.0287   33.2096   38.8547 H         1 SB2    0.0000
     32 HB2         8.6544   28.9096   34.3476 H         1 SB2    0.0000
     33 HB3         7.2873   28.4654   36.3621 H         1 SB2    0.0000
     34 HB5         7.4688   32.6447   37.3123 H         1 SB2    0.0000
     35 HB6         8.8312   32.9997   35.2712 H         1 SB2    0.0000
     36 HD1         9.0565   28.7336   38.7591 H         1 SB2    0.0000
     37 HD2        10.2489   26.5583   38.8935 H         1 SB2    0.0000
     38 HD4         6.5744   24.5911   39.9272 H         1 SB2    0.0000
     39 HD5         5.3859   26.7559   39.7859 H         1 SB2    0.0000
     40 H11        -1.6255   33.0864   42.9263 H         1 SB2    0.0000
     41 H12        -0.7834   31.9320   41.8652 H         1 SB2    0.0000
     42 H13        -0.2448   32.1506   43.5476 H         1 SB2    0.0000
@<TRIPOS>BOND
     1    2    3 1
     2    4    5 ar
     3    4    9 ar
     4    5    6 ar
     5    6    3 1
     6    6    7 ar
     7    7    8 ar
     8    8    9 ar
     9    9   17 1
    10   11   12 ar
    11   11   10 ar
    12   12   13 ar
    13   13   14 ar
    14   13   20 1
    15   14   15 ar
    16   15   10 ar
    17   17   16 2
    18   17   18 2
    19   19   20 2
    20   19   18 2
    21   19   26 1
    22   20   16 2
    23   21   26 ar
    24   21   22 ar
    25   22   23 ar
    26   23   27 1
    27   23   24 ar
    28   24   25 ar
    29   25   26 ar
    30    1    3 2
    31   28    4 1
    32   29    5 1
    33   30    7 1
    34   31    8 1
    35   32   11 1
    36   33   12 1
    37   34   14 1
    38   35   15 1
    39   36   21 1
    40   37   22 1
    41   38   24 1
    42   39   25 1
    43   40    2 1
    44   41    2 1
    45   42    2 1
@<TRIPOS>SUBSTRUCTURE
     1 SB2     1 RESIDUE           4 A     SB2     0 ROOT
