@<TRIPOS>MOLECULE
B96dp.pdb
77 81 1 0 0
SMALL
AMBER ff14SB


@<TRIPOS>ATOM
      1 C1         32.8500   33.9990   15.3520 C.2       1 B96    0.0000
      2 O1         31.9630   34.5370   16.0310 O.2       1 B96    0.0000
      3 N2         34.0770   33.8920   15.8400 N.pl3     1 B96    0.0000
      4 C3         34.4030   34.4490   16.9930 C.ar      1 B96    0.0000
      5 C4         35.4970   35.2570   16.9940 C.ar      1 B96    0.0000
      6 C5         35.9010   35.8800   18.1430 C.ar      1 B96    0.0000
      7 C6         35.1810   35.6970   19.2810 C.ar      1 B96    0.0000
      8 C31        36.2220   35.4440   15.8200 C.ar      1 B96    0.0000
      9 C32        37.3710   36.2710   15.8060 C.ar      1 B96    0.0000
     10 C33        37.7830   36.8970   16.9510 C.ar      1 B96    0.0000
     11 C34        37.0550   36.7140   18.1170 C.ar      1 B96    0.0000
     12 C7         34.0700   34.8730   19.2770 C.ar      1 B96    0.0000
     13 C8         33.6800   34.2450   18.0870 C.ar      1 B96    0.0000
     14 N9         32.6030   33.4680   14.1560 N.pl3     1 B96    0.0000
     15 C10        31.4490   33.4970   13.4860 C.ar      1 B96    0.0000
     16 C14        30.6230   34.5430   13.3720 C.ar      1 B96    0.0000
     17 C13        29.6480   34.1840   12.5140 C.ar      1 B96    0.0000
     18 N12        29.8430   32.9430   12.0960 N.ar      1 B96    0.0000
     19 N11        31.0020   32.5220   12.7310 N.ar      1 B96    0.0000
     20 C15        31.5890   31.3350   12.5550 C.ar      1 B96    0.0000
     21 C17        27.9030   35.6540   13.3180 C.3       1 B96    0.0000
     22 C18        27.5700   34.2410   11.3750 C.3       1 B96    0.0000
     23 C19        29.0900   36.1090   11.2190 C.3       1 B96    0.0000
     24 C16        28.6570   34.9690   12.1470 C.3       1 B96    0.0000
     25 C20        31.7510   30.9020   11.3070 C.ar      1 B96    0.0000
     26 C21        32.3860   29.7130   11.0460 C.ar      1 B96    0.0000
     27 C22        32.8550   28.9620   12.0800 C.ar      1 B96    0.0000
     28 C23        32.6890   29.3990   13.3870 C.ar      1 B96    0.0000
     29 C24        32.0420   30.6080   13.6170 C.ar      1 B96    0.0000
     30 C25        33.5550   27.6910   11.7990 C.3       1 B96    0.0000
     31 O41        35.5610   36.3180   20.3550 O.3       1 B96    0.0000
     32 C42        34.8700   35.9700   21.5440 C.3       1 B96    0.0000
     33 C43        35.2040   37.0260   22.6080 C.3       1 B96    0.0000
     34 N44        34.1660   38.0790   22.8130 N.4       1 B96    0.0000
     35 C45        34.0940   38.8980   21.6080 C.3       1 B96    0.0000
     36 C46        33.8330   40.3930   21.8460 C.3       1 B96    0.0000
     37 O47        34.7250   40.9080   22.8030 O.3       1 B96    0.0000
     38 C48        34.3530   40.3450   24.0060 C.3       1 B96    0.0000
     39 C49        34.6010   38.8440   23.9970 C.3       1 B96    0.0000
     40 H2         34.7740   33.3760   15.3220 H         1 B96    0.0000
     41 H31        35.9050   34.9540   14.9120 H         1 B96    0.0000
     42 H32        37.9240   36.4080   14.8890 H         1 B96    0.0000
     43 H33        38.6620   37.5240   16.9470 H         1 B96    0.0000
     44 H34        37.3690   37.2130   19.0220 H         1 B96    0.0000
     45 H7         33.5070   34.7150   20.1850 H         1 B96    0.0000
     46 H8         32.8090   33.6080   18.0600 H         1 B96    0.0000
     47 H9         33.3720   32.9920   13.7070 H         1 B96    0.0000
     48 H14        30.7190   35.4950   13.8730 H         1 B96    0.0000
     49 H20        31.3770   31.4960   10.4860 H         1 B96    0.0000
     50 H21        32.5120   29.3760   10.0280 H         1 B96    0.0000
     51 H23        33.0570   28.8090   14.2130 H         1 B96    0.0000
     52 H24        31.9000   30.9680   14.6250 H         1 B96    0.0000
     53 H422       33.7960   35.9580   21.3580 H         1 B96    0.0000
     54 H423       35.1960   34.9870   21.8850 H         1 B96    0.0000
     55 H432       35.3530   36.5110   23.5570 H         1 B96    0.0000
     56 H433       36.1390   37.5130   22.3290 H         1 B96    0.0000
     57 H44        33.2700   37.6490   22.9910 H         1 B96    0.0000
     58 H452       35.0420   38.8020   21.0780 H         1 B96    0.0000
     59 H453       33.3010   38.5060   20.9710 H         1 B96    0.0000
     60 H462       32.8110   40.5250   22.2020 H         1 B96    0.0000
     61 H463       33.9600   40.9340   20.9080 H         1 B96    0.0000
     62 H482       34.9350   40.7990   24.8080 H         1 B96    0.0000
     63 H483       33.2930   40.5330   24.1790 H         1 B96    0.0000
     64 H492       34.0860   38.4250   24.8610 H         1 B96    0.0000
     65 H493       35.6700   38.6790   24.1300 H         1 B96    0.0000
     66 H251       33.8580   27.2270   12.7380 H         1 B96    0.0000
     67 H252       34.4370   27.8890   11.1900 H         1 B96    0.0000
     68 H253       32.8860   27.0190   11.2610 H         1 B96    0.0000
     69 H171       28.6120   36.2070   13.9340 H         1 B96    0.0000
     70 H172       27.1570   36.3410   12.9170 H         1 B96    0.0000
     71 H173       27.4090   34.8950   13.9250 H         1 B96    0.0000
     72 H181       27.2000   33.4050   11.9680 H         1 B96    0.0000
     73 H182       27.9790   33.8670   10.4360 H         1 B96    0.0000
     74 H183       26.7500   34.9280   11.1660 H         1 B96    0.0000
     75 H191       29.8770   36.6900   11.6990 H         1 B96    0.0000
     76 H192       29.4650   35.6930   10.2840 H         1 B96    0.0000
     77 H193       28.2360   36.7540   11.0130 H         1 B96    0.0000
@<TRIPOS>BOND
     1    1    2 2
     2    1    3 2
     3    1   14 2
     4   15   14 1
     5   15   16 ar
     6   15   19 ar
     7   17   16 ar
     8   17   24 1
     9   17   18 ar
    10   16   48 1
    11   20   29 ar
    12   20   19 1
    13   20   25 ar
    14   24   21 1
    15   24   22 1
    16   24   23 1
    17   21   70 1
    18   21   69 1
    19   21   71 1
    20   22   74 1
    21   22   72 1
    22   22   73 1
    23   23   76 1
    24   23   77 1
    25   23   75 1
    26   25   49 1
    27   25   26 ar
    28   26   50 1
    29   26   27 ar
    30   27   28 ar
    31   27   30 1
    32   28   51 1
    33   28   29 ar
    34   29   52 1
    35   30   67 1
    36   30   68 1
    37   30   66 1
    38    4    3 1
    39    4    5 ar
    40    4   13 ar
    41    8   41 1
    42    8    5 ar
    43    8    9 ar
    44    9   42 1
    45    9   10 ar
    46   10   43 1
    47   10   11 ar
    48   11   44 1
    49   11    6 ar
    50    5    6 ar
    51   32   53 1
    52   32   54 1
    53   32   33 1
    54   32   31 1
    55   33   56 1
    56   33   55 1
    57   33   34 1
    58   35   59 1
    59   35   58 1
    60   35   34 1
    61   35   36 1
    62   36   60 1
    63   36   61 1
    64   36   37 1
    65   38   63 1
    66   38   62 1
    67   38   37 1
    68   38   39 1
    69   39   65 1
    70   39   64 1
    71   39   34 1
    72    6    7 ar
    73    7   12 ar
    74    7   31 1
    75   12   45 1
    76   12   13 ar
    77   13   46 1
    78   40    3 1
    79   57   34 1
    80   47   14 1
    81   19   18 ar
@<TRIPOS>SUBSTRUCTURE
     1 B96     1 RESIDUE           4 A     B96     0 ROOT
